entsoe-balances-adjustment/src/test/resources/controlArea.xiidm
<?xml version="1.0" encoding="UTF-8"?>
<iidm:network xmlns:iidm="http://www.powsybl.org/schema/iidm/1_5" xmlns:csshm="http://www.powsybl.org/schema/iidm/ext/cgmes_ssh_metadata/1_0" xmlns:crc="http://www.powsybl.org/schema/iidm/ext/coordinated_reactive_control/1_0" xmlns:cc="http://www.powsybl.org/schema/iidm/ext/cim_characteristics/1_0" xmlns:csm="http://www.powsybl.org/schema/iidm/ext/cgmes_sv_metadata/1_0" xmlns:apc="http://www.itesla_project.eu/schema/iidm/ext/active_power_control/1_0" xmlns:cca="http://www.powsybl.org/schema/iidm/ext/cgmes_control_area/1_0" id="urn:uuid:d400c631-75a0-4c30-8aed-832b0d282e73" caseDate="2014-06-01T10:30:00.000Z" forecastDistance="0" sourceFormat="CGMES">
    <iidm:property name="CGMESModelDetail" value="bus-branch"/>
    <iidm:substation id="_87f7002b-056f-4a6a-a872-1744eea757e3" name="Anvers" country="BE" geographicalTags="_c1d5c0378f8011e08e4d00247eb1f55e">
        <iidm:voltageLevel id="FICTITIOUS" name="220.0" nominalV="225.0" lowVoltageLimit="202.5" highVoltageLimit="247.5" topologyKind="BUS_BREAKER">
            <iidm:busBreakerTopology>
                <iidm:bus id="FICTITIOUS_BUS" v="224.871595" angle="-7.6249"/>
            </iidm:busBreakerTopology>
            <iidm:generator id="FICTITIOUS_GEN" energySource="OTHER" minP="50.0" maxP="200.0" ratedS="300.0" voltageRegulatorOn="true" targetP="90.0" targetV="115.5" targetQ="100.256" bus="FICTITIOUS_BUS" connectableBus="FICTITIOUS_BUS" p="-90.0" q="-100.256">
                <iidm:reactiveCapabilityCurve>
                    <iidm:point p="-100.0" minQ="-200.0" maxQ="200.0"/>
                    <iidm:point p="0.0" minQ="-300.0" maxQ="300.0"/>
                    <iidm:point p="100.0" minQ="-200.0" maxQ="200.0"/>
                </iidm:reactiveCapabilityCurve>
            </iidm:generator>
            <iidm:load id="FICTITIOUS_LOAD" loadType="FICTITIOUS" p0="1.0" q0="0.0" bus="FICTITIOUS_BUS" connectableBus="FICTITIOUS_BUS" p="1.0" q="0.0"/>
            <iidm:danglingLine id="FICTITIOUS_DL" p0="-26.805006" q0="1.489867" r="4.6" x="69.0" g="5.75E-5" b="2.1677E-5" ucteXnodeCode="TN_Border_ST24" bus="FICTITIOUS_BUS" connectableBus="FICTITIOUS_BUS" p="-23.837678435181406" q="1.2706014141616382">
                <iidm:currentLimits permanentLimit="1180.0"/>
            </iidm:danglingLine>
        </iidm:voltageLevel>
        <iidm:voltageLevel id="_d0486169-2205-40b2-895e-b672ecb9e5fc" name="220.0" nominalV="225.0" lowVoltageLimit="202.5" highVoltageLimit="247.5" topologyKind="BUS_BREAKER">
            <iidm:busBreakerTopology>
                <iidm:bus id="_f70f6bad-eb8d-4b8f-8431-4ab93581514e" name="BE-Busbar_2" v="224.871595" angle="-7.6249"/>
            </iidm:busBreakerTopology>
            <iidm:load id="_b1480a00-b427-4001-a26c-51954d2bb7e9" name="L-1230804819" loadType="UNDEFINED" p0="1.0" q0="0.0" bus="_f70f6bad-eb8d-4b8f-8431-4ab93581514e" connectableBus="_f70f6bad-eb8d-4b8f-8431-4ab93581514e" p="1.0" q="0.0">
                <iidm:alias type="CGMES.Terminal1">_b9376bea-c75d-49f3-94ca-6a71fa0086a5</iidm:alias>
            </iidm:load>
            <iidm:danglingLine id="_a16b4a6c-70b1-4abf-9a9d-bd0fa47f9fe4" name="BE-Line_7" p0="-26.805006" q0="1.489867" r="4.6" x="69.0" g="5.75E-5" b="2.1677E-5" ucteXnodeCode="TN_Border_ST24" bus="_f70f6bad-eb8d-4b8f-8431-4ab93581514e" connectableBus="_f70f6bad-eb8d-4b8f-8431-4ab93581514e" p="-23.837678435181406" q="1.2706014141616382">
                <iidm:alias type="CGMES.Terminal_Boundary">_57ae9251-c022-4c67-a8eb-611ad54c963c</iidm:alias>
                <iidm:alias type="CGMES.EquivalentInjectionTerminal">_4a7363a4-0b21-4f65-8bba-33e3a8f6bac3</iidm:alias>
                <iidm:alias type="CGMES.EquivalentInjection">_f7f61a91-eca2-4492-8bd7-9ec2b28fc837</iidm:alias>
                <iidm:alias type="CGMES.Terminal_Network">_5b2c65b0-68ce-4530-85b7-385346a3b5e1</iidm:alias>
                <iidm:alias type="CGMES.TopologicalNode">_1fa19c281c8f4e1eaad9e1cab70f923e</iidm:alias>
                <iidm:currentLimits permanentLimit="1180.0">
                    <iidm:temporaryLimit name="_fa8eb432-3107-4562-95fa-7f35d75101b0" acceptableDuration="20" value="1312.0"/>
                    <iidm:temporaryLimit name="_367fe7fa-1b11-4090-af9a-0abc050fda58" acceptableDuration="10" value="1443.0"/>
                </iidm:currentLimits>
            </iidm:danglingLine>
            <iidm:danglingLine id="_17086487-56ba-4979-b8de-064025a6b4da" name="BE-Line_1" p0="-27.365225" q0="0.425626" r="2.2" x="68.2" g="3.08E-5" b="8.2938E-5" ucteXnodeCode="TN_Border_ST23" bus="_f70f6bad-eb8d-4b8f-8431-4ab93581514e" connectableBus="_f70f6bad-eb8d-4b8f-8431-4ab93581514e" p="-25.772723643188716" q="-2.828467729306134">
                <iidm:alias type="CGMES.Terminal_Boundary">_1ef0715a-d5a9-477b-b6e7-b635529ac140</iidm:alias>
                <iidm:alias type="CGMES.Terminal_Network">_70d962fb-a492-4c36-8cad-b5c584df53bd</iidm:alias>
                <iidm:alias type="CGMES.EquivalentInjectionTerminal">_d238885e-d9b6-4edc-8567-6a68c605ed67</iidm:alias>
                <iidm:alias type="CGMES.EquivalentInjection">_87ea56f3-962a-427a-85d6-13b1f9295174</iidm:alias>
                <iidm:alias type="CGMES.TopologicalNode">_8d7bad8bcc634e0796e362390d9040b6</iidm:alias>
                <iidm:currentLimits permanentLimit="1443.0">
                    <iidm:temporaryLimit name="_58c959fd-3675-4ad4-a221-9647b57073dd" acceptableDuration="30" value="1500.0"/>
                    <iidm:temporaryLimit name="_b1714414-0394-42b6-b441-a664069554a2" acceptableDuration="25" value="1550.0"/>
                    <iidm:temporaryLimit name="_ad0fa884-ec20-4908-9986-48ab09ac55cd" acceptableDuration="20" value="1574.0"/>
                    <iidm:temporaryLimit name="_19627231-9a8b-45e1-815c-b280a66a59ca" acceptableDuration="10" value="1705.0"/>
                </iidm:currentLimits>
            </iidm:danglingLine>
        </iidm:voltageLevel>
    </iidm:substation>
    <iidm:substation id="_37e14a0f-5e34-4647-a062-8bfd9305fa9d" name="PP_Brussels" country="BE" geographicalTags="_c1d5bfc88f8011e08e4d00247eb1f55e">
        <iidm:voltageLevel id="_4ba71b59-ee2f-450b-9f7d-cc2f1cc5e386" name="10.5" nominalV="10.5" lowVoltageLimit="9.45" highVoltageLimit="11.55" topologyKind="BUS_BREAKER">
            <iidm:busBreakerTopology>
                <iidm:bus id="_a81d08ed-f51d-4538-8d1e-fb2d0dbd128e" name="BE-Busbar_4" v="10.820805" angle="-7.05718"/>
            </iidm:busBreakerTopology>
            <iidm:generator id="_3a3b27be-b18b-4385-b557-6735d733baf0" name="BE-G1" energySource="OTHER" minP="50.0" maxP="200.0" ratedS="300.0" voltageRegulatorOn="true" targetP="90.0" targetV="115.5" targetQ="100.256" bus="_a81d08ed-f51d-4538-8d1e-fb2d0dbd128e" connectableBus="_a81d08ed-f51d-4538-8d1e-fb2d0dbd128e" p="-90.0" q="-100.256">
                <iidm:alias type="CGMES.Terminal1">_beffa353-7d10-421d-9c08-036b744b1cee</iidm:alias>
                <iidm:property name="CGMES.GeneratingUnit" value="_18993b11-2966-4bce-bab9-d86103f83b53"/>
                <iidm:property name="CGMES.RegulatingControl" value="_6ba406ce-78cf-4485-9b01-a34e584f1a8d"/>
                <iidm:regulatingTerminal id="_a708c3bc-465d-4fe7-b6ef-6fa6408a62b0" side="TWO"/>
                <iidm:reactiveCapabilityCurve>
                    <iidm:point p="-100.0" minQ="-200.0" maxQ="200.0"/>
                    <iidm:point p="0.0" minQ="-300.0" maxQ="300.0"/>
                    <iidm:point p="100.0" minQ="-200.0" maxQ="200.0"/>
                </iidm:reactiveCapabilityCurve>
            </iidm:generator>
        </iidm:voltageLevel>
        <iidm:voltageLevel id="_8bbd7e74-ae20-4dce-8780-c20f8e18c2e0" name="110.0" nominalV="110.0" lowVoltageLimit="99.0" highVoltageLimit="121.0" topologyKind="BUS_BREAKER">
            <iidm:busBreakerTopology>
                <iidm:bus id="_5c74cb26-ce2f-40c6-951d-89091eb781b6" name="BE-Busbar_6" v="115.5" angle="-9.39133"/>
            </iidm:busBreakerTopology>
            <iidm:load id="_cb459405-cc14-4215-a45c-416789205904" name="BE-Load_1" loadType="UNDEFINED" p0="200.0" q0="90.0" bus="_5c74cb26-ce2f-40c6-951d-89091eb781b6" connectableBus="_5c74cb26-ce2f-40c6-951d-89091eb781b6" p="200.0" q="90.0">
                <iidm:alias type="CGMES.Terminal1">_cbdf1842-74ed-4fce-a5d4-0296c82cbc92</iidm:alias>
            </iidm:load>
            <iidm:shunt id="_d771118f-36e9-4115-a128-cc3d9ce3e3da" name="BE_S1" sectionCount="1" voltageRegulatorOn="false" targetV="110.0" targetDeadband="0.5" bus="_5c74cb26-ce2f-40c6-951d-89091eb781b6" connectableBus="_5c74cb26-ce2f-40c6-951d-89091eb781b6" q="-330.75">
                <iidm:alias type="CGMES.Terminal1">_d5e2e58e-ccf6-47d9-b3bb-3088eb7a9b6c</iidm:alias>
                <iidm:property name="CGMES.RegulatingControl" value="_4d50f86d-0d12-4ca3-9430-56bb05f9eee6"/>
                <iidm:shuntLinearModel bPerSection="0.024793" gPerSection="0.0" maximumSectionCount="1"/>
            </iidm:shunt>
        </iidm:voltageLevel>
        <iidm:voltageLevel id="_929ba893-c9dc-44d7-b1fd-30834bd3ab85" name="21.0" nominalV="21.0" lowVoltageLimit="18.9" highVoltageLimit="23.1" topologyKind="BUS_BREAKER">
            <iidm:busBreakerTopology>
                <iidm:bus id="_f96d552a-618d-4d0c-a39a-2dea3c411dee" name="BE-Busbar_5" v="21.987" angle="-6.6508"/>
            </iidm:busBreakerTopology>
            <iidm:generator id="_550ebe0d-f2b2-48c1-991f-cebea43a21aa" name="BE-G2" energySource="OTHER" minP="50.0" maxP="200.0" ratedS="300.0" voltageRegulatorOn="true" targetP="118.0" targetV="21.987" targetQ="18.720301" bus="_f96d552a-618d-4d0c-a39a-2dea3c411dee" connectableBus="_f96d552a-618d-4d0c-a39a-2dea3c411dee" p="-118.0" q="-18.720301">
                <iidm:alias type="CGMES.Terminal1">_4bb5407b-b4a5-416c-80ad-1a778ada2b9b</iidm:alias>
                <iidm:property name="CGMES.GeneratingUnit" value="_5b7a4d43-09ec-4033-882d-64a76d557631"/>
                <iidm:property name="CGMES.RegulatingControl" value="_84bf5be8-eb59-4555-b131-fce4d2d7775d"/>
                <iidm:minMaxReactiveLimits minQ="-200.0" maxQ="200.0"/>
            </iidm:generator>
            <iidm:load id="load_fict" name="load_fict" loadType="UNDEFINED" p0="1.0" q0="0.0" bus="_f96d552a-618d-4d0c-a39a-2dea3c411dee" connectableBus="_f96d552a-618d-4d0c-a39a-2dea3c411dee" p="1.0" q="0.0"/>
        </iidm:voltageLevel>
        <iidm:voltageLevel id="_b10b171b-3bc5-4849-bb1f-61ed9ea1ec7c" name="225.0" nominalV="225.0" lowVoltageLimit="202.5" highVoltageLimit="247.5" topologyKind="BUS_BREAKER">
            <iidm:busBreakerTopology>
                <iidm:bus id="_99b219f3-4593-428b-a4da-124a54630178" name="BE_TR_BUS4" v="224.315268" angle="-8.77012"/>
            </iidm:busBreakerTopology>
            <iidm:load id="_1c6beed6-1acf-42e7-ba55-0cc9f04bddd8" name="BE-Load_2" loadType="UNDEFINED" p0="200.0" q0="50.0" bus="_99b219f3-4593-428b-a4da-124a54630178" connectableBus="_99b219f3-4593-428b-a4da-124a54630178" p="200.0" q="50.0">
                <iidm:alias type="CGMES.Terminal1">_a036b765-1669-4f64-acd3-1e8fbd513312</iidm:alias>
            </iidm:load>
        </iidm:voltageLevel>
        <iidm:voltageLevel id="_469df5f7-058f-4451-a998-57a48e8a56fe" name="380.0" nominalV="380.0" lowVoltageLimit="342.0" highVoltageLimit="418.0" topologyKind="BUS_BREAKER">
            <iidm:busBreakerTopology>
                <iidm:bus id="_e44141af-f1dc-44d3-bfa4-b674e5c953d7" name="BE_TR_BUS2" v="412.989001" angle="-6.78071"/>
            </iidm:busBreakerTopology>
            <iidm:shunt id="_002b0a40-3957-46db-b84a-30420083558f" name="BE_S2" sectionCount="1" voltageRegulatorOn="false" targetV="380.0" targetDeadband="0.5" bus="_e44141af-f1dc-44d3-bfa4-b674e5c953d7" connectableBus="_e44141af-f1dc-44d3-bfa4-b674e5c953d7" q="-59.058142">
                <iidm:alias type="CGMES.Terminal1">_22af3121-1a66-4546-bd80-4371f417c644</iidm:alias>
                <iidm:property name="CGMES.RegulatingControl" value="_67971e8d-518a-408f-9e59-c7601da9a989"/>
                <iidm:shuntLinearModel bPerSection="3.46E-4" gPerSection="7.0E-6" maximumSectionCount="1"/>
            </iidm:shunt>
            <iidm:danglingLine id="_78736387-5f60-4832-b3fe-d50daf81b0a6" name="BE-Line_3" p0="-46.816625" q0="79.193778" r="1.05" x="12.0" g="6.0E-5" b="1.49854E-4" ucteXnodeCode="TN_Border_AL11" bus="_e44141af-f1dc-44d3-bfa4-b674e5c953d7" connectableBus="_e44141af-f1dc-44d3-bfa4-b674e5c953d7" p="-36.59014367310439" q="54.186043054931304">
                <iidm:alias type="CGMES.Terminal_Boundary">_f3b56334-4638-49d3-a6a0-3f417422b8f5</iidm:alias>
                <iidm:alias type="CGMES.EquivalentInjection">_24413233-26c3-4f7e-9f72-4461796938be</iidm:alias>
                <iidm:alias type="CGMES.TopologicalNode">_d4affe50316740bdbbf4ae9c7cbf3cfd</iidm:alias>
                <iidm:alias type="CGMES.Terminal_Network">_231a4cf8-5069-4d53-96e4-e839f073f1ea</iidm:alias>
                <iidm:alias type="CGMES.EquivalentInjectionTerminal">_53072f42-f77b-47e2-bd9a-e097c910b173</iidm:alias>
                <iidm:currentLimits permanentLimit="1371.0">
                    <iidm:temporaryLimit name="_e207f382-e138-4a26-a40d-6c01dda96879" acceptableDuration="20" value="1443.0"/>
                    <iidm:temporaryLimit name="_ca002966-c9a3-4a17-a12d-1cd32c9d9a7e" acceptableDuration="10" value="1515.0"/>
                </iidm:currentLimits>
            </iidm:danglingLine>
            <iidm:danglingLine id="_b18cd1aa-7808-49b9-a7cf-605eaf07b006" name="BE-Line_5" p0="-90.037005" q0="148.603743" r="0.42" x="6.3" g="4.2E-5" b="6.59734E-5" ucteXnodeCode="TN_Border_GY11" bus="_e44141af-f1dc-44d3-bfa4-b674e5c953d7" connectableBus="_e44141af-f1dc-44d3-bfa4-b674e5c953d7" p="-82.84043982883348" q="138.45122572658303">
                <iidm:alias type="CGMES.Terminal_Boundary">_02a244ca-8bcb-4e25-8613-e948b8ba1f22</iidm:alias>
                <iidm:alias type="CGMES.EquivalentInjection">_6f014d4c-c1b0-4eed-8d6d-bae3bc87afcf</iidm:alias>
                <iidm:alias type="CGMES.Terminal_Network">_051d49ba-4360-4372-86bf-50eb8cf29778</iidm:alias>
                <iidm:alias type="CGMES.EquivalentInjectionTerminal">_b9539c41-d114-4280-8a54-8ecec398091e</iidm:alias>
                <iidm:alias type="CGMES.TopologicalNode">_f03d65b2a51049ffa533e433721145c1</iidm:alias>
                <iidm:currentLimits permanentLimit="1804.0">
                    <iidm:temporaryLimit name="_bea68f9e-5348-40dd-ac14-75c41a6a38bd" acceptableDuration="20" value="1876.0"/>
                    <iidm:temporaryLimit name="_3b3fdb5e-dafe-41bb-acfb-eb21be018863" acceptableDuration="10" value="1948.0"/>
                </iidm:currentLimits>
            </iidm:danglingLine>
            <iidm:danglingLine id="_ed0c5d75-4a54-43c8-b782-b20d7431630b" name="BE-Line_4" p0="-43.687227" q0="84.876604" r="0.24" x="2.0" g="4.0E-5" b="2.51956E-5" ucteXnodeCode="TN_Border_MA11" bus="_e44141af-f1dc-44d3-bfa4-b674e5c953d7" connectableBus="_e44141af-f1dc-44d3-bfa4-b674e5c953d7" p="-36.85912997641766" q="80.68264169910178">
                <iidm:alias type="CGMES.EquivalentInjectionTerminal">_c41978db-794b-4bae-953e-60fc519e87dd</iidm:alias>
                <iidm:alias type="CGMES.EquivalentInjection">_14b352cb-5574-40c5-bf83-0ed3574554a3</iidm:alias>
                <iidm:alias type="CGMES.TopologicalNode">_9d25a1f9e5d14d47b6dcde99c4380b40</iidm:alias>
                <iidm:alias type="CGMES.Terminal_Boundary">_f9f29835-8a31-4310-9780-b1ad26f3cbb0</iidm:alias>
                <iidm:alias type="CGMES.Terminal_Network">_c14d2036-72ec-4df3-b1b7-75d8afd9a1fe</iidm:alias>
                <iidm:currentLimits permanentLimit="1226.0">
                    <iidm:temporaryLimit name="_d5a5feb2-8345-487c-a1bc-af3829329391" acceptableDuration="20" value="1299.0"/>
                    <iidm:temporaryLimit name="_e6c72199-8db4-4674-bdd8-d6808afb115e" acceptableDuration="10" value="1371.0"/>
                </iidm:currentLimits>
            </iidm:danglingLine>
        </iidm:voltageLevel>
        <iidm:twoWindingsTransformer id="_e482b89a-fa84-4ea9-8e70-a83d44790957" name="BE-TR2_3" r="9.481464576284766E-4" x="0.052911509061024486" g="0.0019138280377471303" b="-0.00917006295066167" ratedU1="110.34375" ratedU2="10.5" bus1="_5c74cb26-ce2f-40c6-951d-89091eb781b6" connectableBus1="_5c74cb26-ce2f-40c6-951d-89091eb781b6" voltageLevelId1="_8bbd7e74-ae20-4dce-8780-c20f8e18c2e0" bus2="_a81d08ed-f51d-4538-8d1e-fb2d0dbd128e" connectableBus2="_a81d08ed-f51d-4538-8d1e-fb2d0dbd128e" voltageLevelId2="_4ba71b59-ee2f-450b-9f7d-cc2f1cc5e386">
            <iidm:alias type="CGMES.Terminal1">_ca7974cf-b25e-4898-9221-7154233e5eb2</iidm:alias>
            <iidm:alias type="CGMES.Terminal2">_1182d878-2eaa-4eec-91be-ce7b2b1e7f9a</iidm:alias>
            <iidm:alias type="CGMES.RatioTapChanger2">_83cc66dd-8d93-4a2c-8103-f1f5a9cf7e2e</iidm:alias>
            <iidm:property name="CGMES._83cc66dd-8d93-4a2c-8103-f1f5a9cf7e2e.TapChangerControl" value="_97110e84-7da6-479c-846c-696fdaa83d56"/>
            <iidm:ratioTapChanger lowTapPosition="1" tapPosition="14" targetDeadband="0.5" loadTapChangingCapabilities="true" regulating="true" targetV="10.815">
                <iidm:terminalRef id="_e482b89a-fa84-4ea9-8e70-a83d44790957" side="TWO"/>
                <iidm:step r="-23.961600000000004" x="-23.961600000000004" g="31.512498947900024" b="31.512498947900024" rho="0.872"/>
                <iidm:step r="-22.560000000000002" x="-22.560000000000002" g="29.132231404958688" b="29.132231404958688" rho="0.8799999999999999"/>
                <iidm:step r="-21.145599999999998" x="-21.145599999999998" g="26.816005194383564" b="26.816005194383564" rho="0.888"/>
                <iidm:step r="-19.718399999999992" x="-19.718399999999992" g="24.56154336734693" b="24.56154336734693" rho="0.896"/>
                <iidm:step r="-18.278399999999994" x="-18.278399999999994" g="22.366669277155605" b="22.366669277155605" rho="0.904"/>
                <iidm:step r="-16.825599999999994" x="-16.825599999999994" g="20.22930132348415" b="20.22930132348415" rho="0.9120000000000001"/>
                <iidm:step r="-15.359999999999996" x="-15.359999999999996" g="18.14744801512287" b="18.14744801512287" rho="0.92"/>
                <iidm:step r="-13.881600000000017" x="-13.881600000000017" g="16.119203329369824" b="16.119203329369824" rho="0.9279999999999999"/>
                <iidm:step r="-12.390400000000012" x="-12.390400000000012" g="14.142742347870563" b="14.142742347870563" rho="0.936"/>
                <iidm:step r="-10.886400000000007" x="-10.886400000000007" g="12.216317150244183" b="12.216317150244183" rho="0.944"/>
                <iidm:step r="-9.36960000000001" x="-9.36960000000001" g="10.338252948238136" b="10.338252948238136" rho="0.952"/>
                <iidm:step r="-7.8400000000000025" x="-7.8400000000000025" g="8.506944444444443" b="8.506944444444443" rho="0.96"/>
                <iidm:step r="-6.297600000000003" x="-6.297600000000003" g="6.720852400792299" b="6.720852400792299" rho="0.9679999999999999"/>
                <iidm:step r="-4.742400000000002" x="-4.742400000000002" g="4.978500403117447" b="4.978500403117447" rho="0.9760000000000001"/>
                <iidm:step r="-3.1743999999999994" x="-3.1743999999999994" g="3.278471809108341" b="3.278471809108341" rho="0.9839999999999999"/>
                <iidm:step r="-1.5936000000000061" x="-1.5936000000000061" g="1.6194068678460072" b="1.6194068678460072" rho="0.992"/>
                <iidm:step r="0.0" x="0.0" g="0.0" b="0.0" rho="1.0"/>
                <iidm:step r="1.6064000000000078" x="1.6064000000000078" g="-1.5810027714789676" b="-1.5810027714789676" rho="1.008"/>
                <iidm:step r="3.2256000000000062" x="3.2256000000000062" g="-3.1248062496124995" b="-3.1248062496124995" rho="1.016"/>
                <iidm:step r="4.857599999999995" x="4.857599999999995" g="-4.632568359375" b="-4.632568359375" rho="1.024"/>
                <iidm:step r="6.502399999999997" x="6.502399999999997" g="-6.105402319572139" b="-6.105402319572139" rho="1.032"/>
                <iidm:step r="8.16000000000001" x="8.16000000000001" g="-7.544378698224863" b="-7.544378698224863" rho="1.04"/>
                <iidm:step r="9.830400000000017" x="9.830400000000017" g="-8.950527358545557" b="-8.950527358545557" rho="1.048"/>
                <iidm:step r="11.513600000000013" x="11.513600000000013" g="-10.324839302112043" b="-10.324839302112043" rho="1.056"/>
                <iidm:step r="13.209600000000021" x="13.209600000000021" g="-11.66826841539942" b="-11.66826841539942" rho="1.064"/>
                <iidm:step r="14.91840000000002" x="14.91840000000002" g="-12.981733125417705" b="-12.981733125417705" rho="1.072"/>
                <iidm:step r="16.64000000000001" x="16.64000000000001" g="-14.266117969821678" b="-14.266117969821678" rho="1.08"/>
                <iidm:step r="18.374400000000012" x="18.374400000000012" g="-15.5222750865052" b="-15.5222750865052" rho="1.088"/>
                <iidm:step r="20.12160000000003" x="20.12160000000003" g="-16.751025627364292" b="-16.751025627364292" rho="1.096"/>
                <iidm:step r="21.881600000000013" x="21.881600000000013" g="-17.953161100609126" b="-17.953161100609126" rho="1.104"/>
                <iidm:step r="23.65440000000003" x="23.65440000000003" g="-19.129444645722295" b="-19.129444645722295" rho="1.112"/>
                <iidm:step r="25.44000000000002" x="25.44000000000002" g="-20.280612244897966" b="-20.280612244897966" rho="1.12"/>
                <iidm:step r="27.23840000000002" x="27.23840000000002" g="-21.407373874553603" b="-21.407373874553603" rho="1.1280000000000001"/>
            </iidm:ratioTapChanger>
            <iidm:currentLimits1 permanentLimit="1308.1">
                <iidm:temporaryLimit name="_a5d3cd27-798c-4910-9729-6fc745346601" acceptableDuration="20" value="1408.1"/>
                <iidm:temporaryLimit name="_7059bdb7-fa2d-4061-aea7-a88760835e2f" acceptableDuration="10" value="1508.1"/>
            </iidm:currentLimits1>
            <iidm:currentLimits2 permanentLimit="13746.4">
                <iidm:temporaryLimit name="_3674d58e-946d-4901-8084-eb21afe1565a" acceptableDuration="20" value="14746.4"/>
                <iidm:temporaryLimit name="_a1cfb7e6-ed0d-4369-b555-007826ba82fb" acceptableDuration="10" value="15746.4"/>
            </iidm:currentLimits2>
        </iidm:twoWindingsTransformer>
        <iidm:twoWindingsTransformer id="_a708c3bc-465d-4fe7-b6ef-6fa6408a62b0" name="BE-TR2_1" r="0.20476920750000005" x="1.097992115" g="0.0" b="0.0" ratedU1="400.0" ratedU2="110.0" bus1="_e44141af-f1dc-44d3-bfa4-b674e5c953d7" connectableBus1="_e44141af-f1dc-44d3-bfa4-b674e5c953d7" voltageLevelId1="_469df5f7-058f-4451-a998-57a48e8a56fe" bus2="_5c74cb26-ce2f-40c6-951d-89091eb781b6" connectableBus2="_5c74cb26-ce2f-40c6-951d-89091eb781b6" voltageLevelId2="_8bbd7e74-ae20-4dce-8780-c20f8e18c2e0">
            <iidm:alias type="CGMES.Terminal2">_2cd21c77-b8b1-4896-95fb-240f45b9ac89</iidm:alias>
            <iidm:alias type="CGMES.PhaseTapChanger1">_6ebbef67-3061-4236-a6fd-6ccc4595f6c3</iidm:alias>
            <iidm:alias type="CGMES.Terminal1">_c3774d3f-f48c-4954-a0cf-b4572eb714fd</iidm:alias>
            <iidm:property name="CGMES._6ebbef67-3061-4236-a6fd-6ccc4595f6c3.type" value="PhaseTapChangerAsymmetrical"/>
            <iidm:property name="CGMES._6ebbef67-3061-4236-a6fd-6ccc4595f6c3.TapChangerControl" value="_5fc492ab-fe33-423b-84f1-a47f87552427"/>
            <iidm:phaseTapChanger lowTapPosition="1" tapPosition="10" targetDeadband="35.0" regulationMode="ACTIVE_POWER_CONTROL" regulationValue="-65.0" regulating="true">
                <iidm:terminalRef id="_a708c3bc-465d-4fe7-b6ef-6fa6408a62b0" side="TWO"/>
                <iidm:step r="0.0" x="0.0" g="0.0" b="0.0" rho="0.9889363528682975" alpha="8.530765609948135"/>
                <iidm:step r="0.0" x="0.0" g="0.0" b="0.0" rho="0.9906788398452958" alpha="7.829076510059608"/>
                <iidm:step r="0.0" x="0.0" g="0.0" b="0.0" rho="0.9922778767136677" alpha="7.125016348901798"/>
                <iidm:step r="0.0" x="0.0" g="0.0" b="0.0" rho="0.9937313161588018" alpha="6.418786730238786"/>
                <iidm:step r="0.0" x="0.0" g="0.0" b="0.0" rho="0.9950371902099893" alpha="5.710593137499643"/>
                <iidm:step r="0.0" x="0.0" g="0.0" b="0.0" rho="0.996193717496113" alpha="5.000644597558434"/>
                <iidm:step r="0.0" x="0.0" g="0.0" b="0.0" rho="0.9971993098884564" alpha="4.289153328819019"/>
                <iidm:step r="0.0" x="0.0" g="0.0" b="0.0" rho="0.9980525784828885" alpha="3.576334374997351"/>
                <iidm:step r="0.0" x="0.0" g="0.0" b="0.0" rho="0.9987523388778446" alpha="2.862405226111748"/>
                <iidm:step r="0.0" x="0.0" g="0.0" b="0.0" rho="0.9992976157091807" alpha="2.1475854282985036"/>
                <iidm:step r="0.0" x="0.0" g="0.0" b="0.0" rho="0.9996876464081226" alpha="1.4320961841646465"/>
                <iidm:step r="0.0" x="0.0" g="0.0" b="0.0" rho="0.9999218841540815" alpha="0.7161599454704085"/>
                <iidm:step r="0.0" x="0.0" g="0.0" b="0.0" rho="1.0" alpha="-0.0"/>
                <iidm:step r="0.0" x="0.0" g="0.0" b="0.0" rho="0.9999218841540815" alpha="-0.7161599454704085"/>
                <iidm:step r="0.0" x="0.0" g="0.0" b="0.0" rho="0.9996876464081226" alpha="-1.4320961841646465"/>
                <iidm:step r="0.0" x="0.0" g="0.0" b="0.0" rho="0.9992976157091807" alpha="-2.1475854282985036"/>
                <iidm:step r="0.0" x="0.0" g="0.0" b="0.0" rho="0.9987523388778446" alpha="-2.862405226111748"/>
                <iidm:step r="0.0" x="0.0" g="0.0" b="0.0" rho="0.9980525784828885" alpha="-3.576334374997351"/>
                <iidm:step r="0.0" x="0.0" g="0.0" b="0.0" rho="0.9971993098884564" alpha="-4.289153328819019"/>
                <iidm:step r="0.0" x="0.0" g="0.0" b="0.0" rho="0.996193717496113" alpha="-5.000644597558434"/>
                <iidm:step r="0.0" x="0.0" g="0.0" b="0.0" rho="0.9950371902099893" alpha="-5.710593137499643"/>
                <iidm:step r="0.0" x="0.0" g="0.0" b="0.0" rho="0.9937313161588018" alpha="-6.418786730238786"/>
                <iidm:step r="0.0" x="0.0" g="0.0" b="0.0" rho="0.9922778767136677" alpha="-7.125016348901798"/>
                <iidm:step r="0.0" x="0.0" g="0.0" b="0.0" rho="0.9906788398452958" alpha="-7.829076510059608"/>
                <iidm:step r="0.0" x="0.0" g="0.0" b="0.0" rho="0.9889363528682975" alpha="-8.530765609948135"/>
            </iidm:phaseTapChanger>
            <iidm:currentLimits1 permanentLimit="938.2">
                <iidm:temporaryLimit name="_aaa63bb1-fa34-41a3-bd92-0637bfce549c" acceptableDuration="20" value="958.2"/>
                <iidm:temporaryLimit name="_acbd4688-6393-4b43-a9f4-27d8c3f8c309" acceptableDuration="10" value="998.2"/>
            </iidm:currentLimits1>
            <iidm:currentLimits2 permanentLimit="3411.6">
                <iidm:temporaryLimit name="_da1cb116-0730-4a00-b795-8ab0b52ad89f" acceptableDuration="20" value="3611.6"/>
                <iidm:temporaryLimit name="_4af98ccd-29f1-4039-86cd-c23fc2deb3bc" acceptableDuration="10" value="3811.6"/>
            </iidm:currentLimits2>
        </iidm:twoWindingsTransformer>
        <iidm:twoWindingsTransformer id="_b94318f6-6d24-4f56-96b9-df2531ad6543" name="BE-TR2_2" r="0.2057" x="2.78472075" g="0.0" b="0.0" ratedU1="220.0" ratedU2="110.0" bus1="_99b219f3-4593-428b-a4da-124a54630178" connectableBus1="_99b219f3-4593-428b-a4da-124a54630178" voltageLevelId1="_b10b171b-3bc5-4849-bb1f-61ed9ea1ec7c" bus2="_5c74cb26-ce2f-40c6-951d-89091eb781b6" connectableBus2="_5c74cb26-ce2f-40c6-951d-89091eb781b6" voltageLevelId2="_8bbd7e74-ae20-4dce-8780-c20f8e18c2e0">
            <iidm:alias type="CGMES.Terminal2">_ab7ece75-d726-48c8-a924-b0a9325e6d51</iidm:alias>
            <iidm:alias type="CGMES.Terminal1">_4c19ace6-c825-4c5b-87d9-031e6e6a3379</iidm:alias>
            <iidm:alias type="CGMES.RatioTapChanger1">_955d9cd0-4a10-4031-b008-60c0dc340a07</iidm:alias>
            <iidm:property name="CGMES._955d9cd0-4a10-4031-b008-60c0dc340a07.TapChangerControl" value="_ee42c6c2-39e7-43c2-9bdd-d397c5dc980b"/>
            <iidm:ratioTapChanger lowTapPosition="1" tapPosition="10" targetDeadband="0.5" loadTapChangingCapabilities="true" regulating="false" targetV="0.0">
                <iidm:terminalRef id="_b94318f6-6d24-4f56-96b9-df2531ad6543" side="TWO"/>
                <iidm:step r="0.0" x="0.0" g="0.0" b="0.0" rho="1.1764705882352942"/>
                <iidm:step r="0.0" x="0.0" g="0.0" b="0.0" rho="1.1594202898550725"/>
                <iidm:step r="0.0" x="0.0" g="0.0" b="0.0" rho="1.1428571428571428"/>
                <iidm:step r="0.0" x="0.0" g="0.0" b="0.0" rho="1.1267605633802817"/>
                <iidm:step r="0.0" x="0.0" g="0.0" b="0.0" rho="1.1111111111111112"/>
                <iidm:step r="0.0" x="0.0" g="0.0" b="0.0" rho="1.095890410958904"/>
                <iidm:step r="0.0" x="0.0" g="0.0" b="0.0" rho="1.081081081081081"/>
                <iidm:step r="0.0" x="0.0" g="0.0" b="0.0" rho="1.0666666666666667"/>
                <iidm:step r="0.0" x="0.0" g="0.0" b="0.0" rho="1.0526315789473684"/>
                <iidm:step r="0.0" x="0.0" g="0.0" b="0.0" rho="1.0389610389610389"/>
                <iidm:step r="0.0" x="0.0" g="0.0" b="0.0" rho="1.0256410256410258"/>
                <iidm:step r="0.0" x="0.0" g="0.0" b="0.0" rho="1.0126582278481011"/>
                <iidm:step r="0.0" x="0.0" g="0.0" b="0.0" rho="1.0"/>
                <iidm:step r="0.0" x="0.0" g="0.0" b="0.0" rho="0.9876543209876544"/>
                <iidm:step r="0.0" x="0.0" g="0.0" b="0.0" rho="0.9756097560975611"/>
                <iidm:step r="0.0" x="0.0" g="0.0" b="0.0" rho="0.9638554216867469"/>
                <iidm:step r="0.0" x="0.0" g="0.0" b="0.0" rho="0.9523809523809523"/>
                <iidm:step r="0.0" x="0.0" g="0.0" b="0.0" rho="0.9411764705882353"/>
                <iidm:step r="0.0" x="0.0" g="0.0" b="0.0" rho="0.9302325581395349"/>
                <iidm:step r="0.0" x="0.0" g="0.0" b="0.0" rho="0.9195402298850576"/>
                <iidm:step r="0.0" x="0.0" g="0.0" b="0.0" rho="0.9090909090909091"/>
                <iidm:step r="0.0" x="0.0" g="0.0" b="0.0" rho="0.898876404494382"/>
                <iidm:step r="0.0" x="0.0" g="0.0" b="0.0" rho="0.8888888888888888"/>
                <iidm:step r="0.0" x="0.0" g="0.0" b="0.0" rho="0.8791208791208791"/>
                <iidm:step r="0.0" x="0.0" g="0.0" b="0.0" rho="0.8695652173913044"/>
            </iidm:ratioTapChanger>
            <iidm:currentLimits1 permanentLimit="1705.8">
                <iidm:temporaryLimit name="_0d6f26df-9f86-4df0-b00c-bfb23870257f" acceptableDuration="20" value="1805.8"/>
                <iidm:temporaryLimit name="_5b77485f-20a3-4a19-8d15-e4038c81663f" acceptableDuration="10" value="1905.8"/>
            </iidm:currentLimits1>
            <iidm:currentLimits2 permanentLimit="3411.6">
                <iidm:temporaryLimit name="_7939fc42-08ef-4ce7-9912-97552a4db39a" acceptableDuration="20" value="3611.6"/>
                <iidm:temporaryLimit name="_84d4dbeb-ef3b-43a1-9a7e-ce5713013498" acceptableDuration="10" value="3811.6"/>
            </iidm:currentLimits2>
        </iidm:twoWindingsTransformer>
        <iidm:threeWindingsTransformer id="3WT" r1="17.424" x1="1.7424" g1="0.00573921028466483" b1="5.73921028466483E-4" ratedU1="132.0" r2="1.089" x2="0.1089" g2="0.0" b2="0.0" ratedU2="33.0" r3="0.121" x3="0.0121" g3="0.0" b3="0.0" ratedU3="11.0" ratedU0="132.0" bus1="_99b219f3-4593-428b-a4da-124a54630178" connectableBus1="_99b219f3-4593-428b-a4da-124a54630178" voltageLevelId1="_b10b171b-3bc5-4849-bb1f-61ed9ea1ec7c" bus2="_5c74cb26-ce2f-40c6-951d-89091eb781b6" voltageLevelId2="_8bbd7e74-ae20-4dce-8780-c20f8e18c2e0" bus3="_e44141af-f1dc-44d3-bfa4-b674e5c953d7" connectableBus3="_e44141af-f1dc-44d3-bfa4-b674e5c953d7" voltageLevelId3="_469df5f7-058f-4451-a998-57a48e8a56fe">
            <iidm:ratioTapChanger2 lowTapPosition="0" tapPosition="2" loadTapChangingCapabilities="true" regulating="false" targetV="33.0" targetDeadband="0.0">
                <iidm:step r="0.9801" x="0.09801" g="0.08264462809917356" b="0.008264462809917356" rho="0.9"/>
                <iidm:step r="1.089" x="0.1089" g="0.09182736455463728" b="0.009182736455463728" rho="1.0"/>
                <iidm:step r="1.1979" x="0.11979" g="0.10101010101010101" b="0.0101010101010101" rho="1.1"/>
            </iidm:ratioTapChanger2>
            <iidm:ratioTapChanger3 lowTapPosition="0" tapPosition="0" loadTapChangingCapabilities="true" regulating="false" targetV="11.0">
                <iidm:step r="0.1089" x="0.01089" g="0.8264462809917356" b="0.08264462809917356" rho="0.9"/>
                <iidm:step r="0.121" x="0.0121" g="0.8264462809917356" b="0.08264462809917356" rho="1.0"/>
                <iidm:step r="0.1331" x="0.01331" g="0.9090909090909092" b="0.09090909090909093" rho="1.1"/>
            </iidm:ratioTapChanger3>
            <iidm:currentLimits1 permanentLimit="1000.0">
                <iidm:temporaryLimit name="20'" acceptableDuration="1200" value="1200.0"/>
                <iidm:temporaryLimit name="10'" acceptableDuration="600" value="1400.0"/>
            </iidm:currentLimits1>
            <iidm:currentLimits2 permanentLimit="100.0">
                <iidm:temporaryLimit name="20'" acceptableDuration="1200" value="120.0"/>
                <iidm:temporaryLimit name="10'" acceptableDuration="600" value="140.0"/>
            </iidm:currentLimits2>
            <iidm:currentLimits3 permanentLimit="10.0">
                <iidm:temporaryLimit name="20'" acceptableDuration="1200" value="12.0"/>
                <iidm:temporaryLimit name="10'" acceptableDuration="600" value="14.0"/>
            </iidm:currentLimits3>
        </iidm:threeWindingsTransformer>
    </iidm:substation>
    <iidm:line id="_b58bf21a-096a-4dae-9a01-3f03b60c24c7" name="BE-Line_2" r="1.935" x="34.2" g1="3.375E-5" b1="2.120575E-5" g2="3.375E-5" b2="2.120575E-5" bus1="_99b219f3-4593-428b-a4da-124a54630178" connectableBus1="_99b219f3-4593-428b-a4da-124a54630178" voltageLevelId1="_b10b171b-3bc5-4849-bb1f-61ed9ea1ec7c" bus2="_f70f6bad-eb8d-4b8f-8431-4ab93581514e" connectableBus2="_f70f6bad-eb8d-4b8f-8431-4ab93581514e" voltageLevelId2="_d0486169-2205-40b2-895e-b672ecb9e5fc">
        <iidm:alias type="CGMES.Terminal2">_77f04391-aa23-49b6-b3e9-6089130bb5d5</iidm:alias>
        <iidm:alias type="CGMES.Terminal1">_699545b9-82b9-4331-bc80-538d73b4ba56</iidm:alias>
        <iidm:currentLimits1 permanentLimit="1443.0">
            <iidm:temporaryLimit name="_1594f66e-86bd-45da-aa04-3c2bd8e07d76" acceptableDuration="20" value="1574.0"/>
            <iidm:temporaryLimit name="_6f35cf24-2d5e-4b9a-ac65-943610878a4b" acceptableDuration="10" value="1705.0"/>
        </iidm:currentLimits1>
        <iidm:currentLimits2 permanentLimit="1443.0">
            <iidm:temporaryLimit name="_43d42f99-7c35-4907-a6ea-372b41eb8f77" acceptableDuration="20" value="1574.0"/>
            <iidm:temporaryLimit name="_3ab4897f-cf5e-418b-8e1c-94f9cde91501" acceptableDuration="10" value="1705.0"/>
        </iidm:currentLimits2>
    </iidm:line>
    <iidm:line id="_ffbabc27-1ccd-4fdc-b037-e341706c8d29" name="BE-Line_6" r="5.203" x="71.0" g1="6.0E-5" b1="1.000595E-5" g2="6.0E-5" b2="1.000595E-5" bus1="_99b219f3-4593-428b-a4da-124a54630178" connectableBus1="_99b219f3-4593-428b-a4da-124a54630178" voltageLevelId1="_b10b171b-3bc5-4849-bb1f-61ed9ea1ec7c" bus2="_f70f6bad-eb8d-4b8f-8431-4ab93581514e" connectableBus2="_f70f6bad-eb8d-4b8f-8431-4ab93581514e" voltageLevelId2="_d0486169-2205-40b2-895e-b672ecb9e5fc">
        <iidm:alias type="CGMES.Terminal2">_a4d42d33-ae54-4fe9-ad59-f30da0dfb809</iidm:alias>
        <iidm:alias type="CGMES.Terminal1">_05a17350-55f5-4a00-9a50-8c0048a25495</iidm:alias>
        <iidm:currentLimits1 permanentLimit="1180.0">
            <iidm:temporaryLimit name="_0f8bff64-4cfe-4c94-9471-da94b2efcc4f" acceptableDuration="20" value="1312.0"/>
            <iidm:temporaryLimit name="_61870312-e0be-4dd7-8941-22c108b61c30" acceptableDuration="10" value="1443.0"/>
        </iidm:currentLimits1>
        <iidm:currentLimits2 permanentLimit="1180.0">
            <iidm:temporaryLimit name="_a634eecf-b900-4808-8b74-d91e36c383a0" acceptableDuration="20" value="1312.0"/>
            <iidm:temporaryLimit name="_5a4a910c-f57f-456b-b9ca-670ab3676adb" acceptableDuration="10" value="1443.0"/>
        </iidm:currentLimits2>
    </iidm:line>
    <iidm:line id="_b58bf21a-096a-4dae-9a01-3f03b60c24c7_fict" name="BE-Line_2_fict" r="1.935" x="34.2" g1="3.375E-5" b1="2.120575E-5" g2="3.375E-5" b2="2.120575E-5" bus1="_a81d08ed-f51d-4538-8d1e-fb2d0dbd128e" connectableBus1="_a81d08ed-f51d-4538-8d1e-fb2d0dbd128e" voltageLevelId1="_4ba71b59-ee2f-450b-9f7d-cc2f1cc5e386" bus2="_f96d552a-618d-4d0c-a39a-2dea3c411dee" connectableBus2="_f96d552a-618d-4d0c-a39a-2dea3c411dee" voltageLevelId2="_929ba893-c9dc-44d7-b1fd-30834bd3ab85" p1="-90.037005" q1="148.603743" p2="91.037005" q2="-150.603743"/>
    <iidm:line id="_b58bf21a-096a-4dae-9a01-3f03b60c24c7_fict_2" name="BE-Line_2_fict_2" r="1.935" x="34.2" g1="3.375E-5" b1="2.120575E-5" g2="3.375E-5" b2="2.120575E-5" bus1="_f96d552a-618d-4d0c-a39a-2dea3c411dee" connectableBus1="_f96d552a-618d-4d0c-a39a-2dea3c411dee" voltageLevelId1="_929ba893-c9dc-44d7-b1fd-30834bd3ab85" bus2="_a81d08ed-f51d-4538-8d1e-fb2d0dbd128e" connectableBus2="_a81d08ed-f51d-4538-8d1e-fb2d0dbd128e" voltageLevelId2="_4ba71b59-ee2f-450b-9f7d-cc2f1cc5e386" p1="-90.037005" q1="148.603743" p2="91.037005" q2="-150.603743"/>
    <iidm:line id="_b58bf21a-096a-4dae-9a01-3f03b60c24c7_fict_3" name="BE-Line_2_fict_3" r="1.935" x="34.2" g1="3.375E-5" b1="2.120575E-5" g2="3.375E-5" b2="2.120575E-5" connectableBus1="_a81d08ed-f51d-4538-8d1e-fb2d0dbd128e" voltageLevelId1="_4ba71b59-ee2f-450b-9f7d-cc2f1cc5e386" connectableBus2="_f96d552a-618d-4d0c-a39a-2dea3c411dee" voltageLevelId2="_929ba893-c9dc-44d7-b1fd-30834bd3ab85"/>
    <iidm:line id="_b58bf21a-096a-4dae-9a01-3f03b60c24c7_fict_4" name="BE-Line_2_fict_4" r="1.935" x="34.2" g1="3.375E-5" b1="2.120575E-5" g2="3.375E-5" b2="2.120575E-5" bus1="_a81d08ed-f51d-4538-8d1e-fb2d0dbd128e" connectableBus1="_a81d08ed-f51d-4538-8d1e-fb2d0dbd128e" voltageLevelId1="_4ba71b59-ee2f-450b-9f7d-cc2f1cc5e386" connectableBus2="_f96d552a-618d-4d0c-a39a-2dea3c411dee" voltageLevelId2="_929ba893-c9dc-44d7-b1fd-30834bd3ab85"/>
    <iidm:extension id="_550ebe0d-f2b2-48c1-991f-cebea43a21aa">
        <crc:coordinatedReactiveControl qPercent="100.0"/>
        <apc:activePowerControl participate="true" droop="0.0"/>
    </iidm:extension>
    <iidm:extension id="urn:uuid:d400c631-75a0-4c30-8aed-832b0d282e73">
        <cca:cgmesControlAreas>
            <cca:controlArea id="_BECONTROLAREA" name="BE" energyIdentificationCodeEic="10BE------1" netInterchange="-205.90011555672567">
                <cca:terminal id="_a16b4a6c-70b1-4abf-9a9d-bd0fa47f9fe4"/>
                <cca:terminal id="_78736387-5f60-4832-b3fe-d50daf81b0a6"/>
                <cca:terminal id="_17086487-56ba-4979-b8de-064025a6b4da"/>
                <cca:terminal id="_b58bf21a-096a-4dae-9a01-3f03b60c24c7_fict_2" side="TWO"/>
                <cca:boundary id="_b18cd1aa-7808-49b9-a7cf-605eaf07b006"/>
            </cca:controlArea>
        </cca:cgmesControlAreas>
        <csshm:cgmesSshMetadata description="CGMES Conformity Assessment: 'MicroGridTestConfiguration....BC (MAS BE) Test Configuration. The model is owned by ENTSO-E and is provided by ENTSO-E “as it is”. To the fullest extent permitted by law, ENTSO-E shall not be liable for any damages of any kind arising out of the use of the model (including any of its subsequent modifications). ENTSO-E neither warrants, nor represents that the use of the model will not infringe the rights of third parties. Any use of the model shall  include a reference to ENTSO-E. ENTSO-E web site is the only official source of information related to the model." sshVersion="2" modelingAuthoritySet="http://elia.be/CGMES/2.4.15">
            <csshm:dependentOn>urn:uuid:d400c631-75a0-4c30-8aed-832b0d282e73</csshm:dependentOn>
        </csshm:cgmesSshMetadata>
        <csm:cgmesSvMetadata description="CGMES Conformity Assessment: 'MicroGridTestConfiguration....BC (MAS BE) Test Configuration. The model is owned by ENTSO-E and is provided by ENTSO-E “as it is”. To the fullest extent permitted by law, ENTSO-E shall not be liable for any damages of any kind arising out of the use of the model (including any of its subsequent modifications). ENTSO-E neither warrants, nor represents that the use of the model will not infringe the rights of third parties. Any use of the model shall  include a reference to ENTSO-E. ENTSO-E web site is the only official source of information related to the model." svVersion="2" modelingAuthoritySet="http://elia.be/CGMES/2.4.15">
            <csm:dependentOn>urn:uuid:2399cbd1-9a39-11e0-aa80-0800200c9a66</csm:dependentOn>
            <csm:dependentOn>urn:uuid:d400c631-75a0-4c30-8aed-832b0d282e73</csm:dependentOn>
            <csm:dependentOn>urn:uuid:f2f43818-09c8-4252-9611-7af80c398d20</csm:dependentOn>
        </csm:cgmesSvMetadata>
        <cc:cimCharacteristics topologyKind="BUS_BRANCH" cimVersion="16"/>
    </iidm:extension>
    <iidm:extension id="_3a3b27be-b18b-4385-b557-6735d733baf0">
        <crc:coordinatedReactiveControl qPercent="50.0"/>
        <apc:activePowerControl participate="true" droop="0.0"/>
    </iidm:extension>
</iidm:network>
